Version 4
SHEET 1 880 680
WIRE 144 16 -256 16
WIRE 400 16 224 16
WIRE 144 48 -176 48
WIRE 448 48 224 48
WIRE 448 64 448 48
WIRE 0 80 -64 80
WIRE 144 80 0 80
WIRE 0 96 0 80
WIRE 80 112 48 112
WIRE 144 112 80 112
WIRE 272 112 224 112
WIRE -256 128 -256 96
WIRE 80 128 80 112
WIRE -176 160 -176 128
WIRE 0 192 0 160
WIRE 80 224 80 192
WIRE 592 256 592 192
WIRE 592 368 592 336
WIRE 592 416 592 368
WIRE 592 544 592 496
FLAG 592 368 0
FLAG 592 192 Vdd
FLAG 592 544 -Vdd
FLAG 0 192 0
FLAG 80 224 0
FLAG -64 80 Vdd
FLAG 48 112 -Vdd
FLAG 400 16 Sortie
FLAG 448 64 0
FLAG -256 128 0
FLAG -176 160 0
SYMBOL AutoGenerated\\INA111 176 64 R0
SYMATTR InstName U1
SYMBOL voltage 592 240 R0
WINDOW 123 0 0 Left 0
WINDOW 39 0 0 Left 0
SYMATTR InstName V1
SYMATTR Value 15
SYMBOL voltage 592 400 R0
WINDOW 123 0 0 Left 0
WINDOW 39 0 0 Left 0
SYMATTR InstName V2
SYMATTR Value 15
SYMBOL cap 64 128 R0
SYMATTR InstName C1
SYMATTR Value 0.1µ
SYMBOL cap -16 96 R0
SYMATTR InstName C2
SYMATTR Value 0.1µ
SYMBOL voltage -176 32 R0
WINDOW 123 0 0 Left 0
WINDOW 39 0 0 Left 0
SYMATTR InstName V3
SYMATTR Value SINE(0 0 0)
SYMBOL voltage -256 0 R0
WINDOW 123 0 0 Left 0
WINDOW 39 0 0 Left 0
SYMATTR InstName V4
SYMATTR Value SINE(0 0.5 1000000)
TEXT -290 648 Left 2 !.tran 0 5u 0 0.001u
