Version 4
SHEET 1 880 680
WIRE -1536 -480 -1536 -544
WIRE -1536 -480 -1568 -480
WIRE -1312 -480 -1312 -592
WIRE -1248 -480 -1312 -480
WIRE -1200 -480 -1248 -480
WIRE -1536 -432 -1536 -480
WIRE -1520 -432 -1536 -432
WIRE -1312 -432 -1312 -480
WIRE -1312 -432 -1328 -432
WIRE -1536 -400 -1568 -400
WIRE -1520 -400 -1536 -400
WIRE -1312 -400 -1312 -432
WIRE -1312 -400 -1328 -400
WIRE -1248 -400 -1248 -416
WIRE -1200 -400 -1200 -416
WIRE -1536 -384 -1536 -400
WIRE -1536 -384 -1664 -384
WIRE -1520 -368 -1552 -368
WIRE -1744 -336 -1744 -384
WIRE -1552 -336 -1552 -368
WIRE -1552 -336 -1600 -336
WIRE -1520 -336 -1552 -336
WIRE -1600 -320 -1600 -336
WIRE -1552 -304 -1552 -336
WIRE -1520 -304 -1552 -304
WIRE -1200 -304 -1328 -304
WIRE -1520 -272 -1600 -272
WIRE -1264 -272 -1328 -272
WIRE -1200 -272 -1200 -304
WIRE -1264 -256 -1264 -272
WIRE -1600 -240 -1600 -272
WIRE -1520 -240 -1536 -240
WIRE -1312 -240 -1328 -240
WIRE -1744 -224 -1744 -256
WIRE -1152 -208 -1152 -256
WIRE -1600 -144 -1600 -176
WIRE -1536 -144 -1536 -240
WIRE -1472 -144 -1536 -144
WIRE -1312 -144 -1312 -240
WIRE -1312 -144 -1408 -144
WIRE -1264 -144 -1264 -192
WIRE -1152 -96 -1152 -128
WIRE -1152 -48 -1152 -96
WIRE -1152 96 -1152 32
FLAG -1600 -320 0
FLAG -1200 -400 0
FLAG -1248 -400 0
FLAG -1264 -144 0
FLAG -1600 -144 0
FLAG -1200 -272 0
FLAG -1152 -96 0
FLAG -1152 -256 Vdd
FLAG -1152 96 -Vdd
FLAG -1312 -592 Vdd
FLAG -1536 -544 SortieA
FLAG -1744 -224 0
SYMBOL AutoGenerated\\MAX44267 -1424 -336 R0
SYMATTR InstName U1
SYMBOL cap -1616 -240 R0
SYMATTR InstName C1
SYMATTR Value 1µ
SYMBOL cap -1408 -160 R90
WINDOW 0 0 32 VBottom 2
WINDOW 3 32 32 VTop 2
SYMATTR InstName C2
SYMATTR Value 0.022µ
SYMBOL cap -1232 -416 R180
WINDOW 0 24 56 Left 2
WINDOW 3 24 8 Left 2
SYMATTR InstName C4
SYMATTR Value 0.1µ
SYMBOL cap -1184 -416 R180
WINDOW 0 24 56 Left 2
WINDOW 3 24 8 Left 2
SYMATTR InstName C5
SYMATTR Value 0.1µ
SYMBOL res -1584 -496 R0
WINDOW 3 -50 58 Left 2
SYMATTR InstName R1
SYMATTR Value 100k
SYMBOL cap -1280 -256 R0
SYMATTR InstName C3
SYMATTR Value 0.1µ
SYMBOL voltage -1152 -64 R0
WINDOW 123 0 0 Left 0
WINDOW 39 0 0 Left 0
SYMATTR InstName V1
SYMATTR Value 15
SYMBOL voltage -1152 -224 R0
WINDOW 123 0 0 Left 0
WINDOW 39 0 0 Left 0
SYMATTR InstName V2
SYMATTR Value 15
SYMBOL res -1648 -400 R90
WINDOW 0 0 56 VBottom 2
WINDOW 3 32 56 VTop 2
SYMATTR InstName R2
SYMATTR Value 22k
SYMBOL voltage -1744 -352 R0
WINDOW 3 -112 168 Left 2
WINDOW 123 0 0 Left 0
WINDOW 39 0 0 Left 0
SYMATTR InstName V3
SYMATTR Value SINE(0 0.5 1000000)
TEXT -1840 -40 Left 2 !.tran 0 5u 0 0.001u
